/*--------------------------------*- C++ -*----------------------------------*\
  =========                 |
  \\      /  F ield         | OpenFOAM: The Open Source CFD Toolbox
   \\    /   O peration     | Website:  https://openfoam.org
    \\  /    A nd           | Version:  dev
     \\/     M anipulation  |
\*---------------------------------------------------------------------------*/


FoamFile
{
	version 2.0;
	format binary;
	class dictionary;
	location "";
	object decomposeParDict;
}
/*---------------------------------------------------------------------------*/
/*---------------------------------------------------------------------------*/

numberOfSubdomains 8;
method scotch;

scotchCoeffs
{
	processorWeights
	(
		1
		1
		1
		1
		1
		1
		1
		1
	);
}

