/*--------------------------------*- C++ -*----------------------------------*\
  =========                 |
  \\      /  F ield         | OpenFOAM: The Open Source CFD Toolbox
   \\    /   O peration     | Website:  https://openfoam.org
    \\  /    A nd           | Version:  6
     \\/     M anipulation  |
\*---------------------------------------------------------------------------*/
FoamFile
{
    version     2.0;
    format      ascii;
    class       dictionary;
    object      fvSchemes;
}
// * * * * * * * * * * * * * * * * * * * * * * * * * * * * * * * * * * * * * //

ddtSchemes
{
    default         steadyState;
}

gradSchemes
{
    default         Gauss linear;
    //default         leastSquares;
    //default         cellLimited Gauss linear 1;


    limited         cellLimited Gauss linear 1;

    grad(U)         $limited;
   
    //grad(k)         $limited; //origi setup
    
    //grad(epsilon)   $limited;
    //grad(omega)     $limited;
    
}

divSchemes
{
    //default         Gauss linear;
    //turbulence      bounded Gauss limitedLinear 1;

    //First upwind, due to high gradients
    //turbulence      bounded Gauss upwind;
    turbulence      bounded Gauss linearUpwind grad(U);



    //div(phi,U)      bounded Gauss linearUpwind limited;
    div(phi,U)      bounded Gauss linearUpwindV limited;
    //div(phi,U)      Gauss LUST unlimitedGrad(U); //for LES
    //div(phi,U)      bounded Gauss upwind;
    div(phi,k)      $turbulence;
    div(phi,omega)  $turbulence;

    div((nuEff*dev2(T(grad(U))))) Gauss linear;
}

laplacianSchemes
{
    //default         Gauss linear limited corrected 1;
    //default         Gauss linear limited corrected 0.5;
    default         Gauss linear corrected;

}

interpolationSchemes
{
    default         linear;
}

snGradSchemes
{
    //default         limited corrected 1;
    //default         limited corrected 0.5;
    //default         limited;
    default          corrected; //origi setup
}

wallDist
{
    method meshWave;
}

// ************************************************************************* //
