/*--------------------------------*- C++ -*----------------------------------*\
  =========                 |
  \\      /  F ield         | OpenFOAM: The Open Source CFD Toolbox
   \\    /   O peration     | Website:  https://openfoam.org
    \\  /    A nd           | Version:  6
     \\/     M anipulation  |
\*---------------------------------------------------------------------------*/
FoamFile
{
    version     2.0;
    format      ascii;
    class       dictionary;
    object      fvSolution;
}
// * * * * * * * * * * * * * * * * * * * * * * * * * * * * * * * * * * * * * //

solvers
{
    p
    {
        solver          GAMG;
        smoother        GaussSeidel;
        tolerance       1e-6;
        relTol          0.01;
        //maxIter         10;
        nCellsInCoarsestLevel 3000;
    }

    U
    {
        solver          smoothSolver;
        smoother        GaussSeidel;
        tolerance       1e-6;
        relTol          0.0;

    }

    "(k|omega|epsilon)"
    {
        solver          smoothSolver;
        smoother        GaussSeidel;
        tolerance       1e-6;
        relTol          0.1;

    }
}

SIMPLE
{

    nNonOrthogonalCorrectors 0;
    residualControl
    {
        //p               1e-5;
        //U               1e-6;
        //"(k|epsilon)"   1e-6;
    }
}


relaxationFactors
{
    fields
    {
        p               0.3;
    }
    equations
    {
        U               0.5;
        "(k|omega|epsilon).*" 0.5;
    }
}

// ************************************************************************* //
