/*--------------------------------*- C++ -*----------------------------------*\
  =========                 |
  \\      /  F ield         | OpenFOAM: The Open Source CFD Toolbox
   \\    /   O peration     | Website:  https://openfoam.org
    \\  /    A nd           | Version:  6
     \\/     M anipulation  |
\*---------------------------------------------------------------------------*/
FoamFile
{
    version     2.0;
    format      binary;
    class       volScalarField;
    location    "0";
    object      nut;
}
// * * * * * * * * * * * * * * * * * * * * * * * * * * * * * * * * * * * * * //

dimensions      [0 2 -1 0 0 0 0];

internalField   uniform 0;

boundaryField
{
    body
    {
        type            nutUSpaldingWallFunction;//nutUSpaldingWallFunction;
        value           uniform 0;
    }
    front_axis
    {
        type            nutUSpaldingWallFunction;
        value           uniform 0;
    }
    front_refinement
    {
        type            nutUSpaldingWallFunction;
        value           uniform 0;
    }
    front_wheel
    {
        type            nutUSpaldingWallFunction;
        value           uniform 0;
    }
    ground
    {
        type            nutUSpaldingWallFunction;
        value           uniform 0;
    }
    inlet
    {
        type            calculated;
        value           uniform 0;
    }
    outlet
    {
        type            calculated;
        value           uniform 0;
    }
    rear_axis
    {
        type            nutUSpaldingWallFunction;
        value           uniform 0;
    }
    rear_refinement
    {
        type            nutUSpaldingWallFunction;
        value           uniform 0;
    }
    rear_wheel
    {
        type            nutUSpaldingWallFunction;
        value           uniform 0;
    }
    side
    {
        type            symmetry;
    }
    symmetry
    {
        type            symmetry;
    }
    top
    {
        type            symmetry;
    }
}


// ************************************************************************* //
