/*--------------------------------*- C++ -*----------------------------------*\
  =========                 |
  \\      /  F ield         | OpenFOAM: The Open Source CFD Toolbox
   \\    /   O peration     | Website:  https://openfoam.org
    \\  /    A nd           | Version:  6
     \\/     M anipulation  |
\*---------------------------------------------------------------------------*/
FoamFile
{
    version     2.0;
    format      binary;
    class       volScalarField;
    location    "0";
    object      p;
}
// * * * * * * * * * * * * * * * * * * * * * * * * * * * * * * * * * * * * * //

dimensions      [0 2 -2 0 0 0 0];

internalField   uniform 1e5;

boundaryField
{
    body
    {
        type            zeroGradient;
    }
    front_axis
    {
        type            zeroGradient;
    }
    front_refinement
    {
        type            zeroGradient;
    }
    front_wheel
    {
        type            zeroGradient;
    }
    ground
    {
        type            zeroGradient;
    }
    inlet
    {
        type            zeroGradient;
    }
    outlet
    {
        type            fixedValue;
        value           uniform 1e5;
    }
    rear_axis
    {
        type            zeroGradient;
    }
    rear_refinement
    {
        type            zeroGradient;
    }
    rear_wheel
    {
        type            zeroGradient;
    }
    side
    {
        type            symmetry;
    }
    symmetry
    {
        type            symmetry;
    }
    top
    {
        type            symmetry;
    }
}


// ************************************************************************* //
